Version 4
SHEET 1 880 680
WIRE 16 -48 -64 -48
WIRE 400 -48 304 -48
WIRE 16 -16 16 -48
WIRE -64 0 -64 -48
WIRE 304 16 304 -48
WIRE 400 16 400 -48
WIRE -112 128 -256 128
WIRE 16 128 16 48
WIRE 16 128 -32 128
WIRE 48 128 16 128
WIRE 64 128 48 128
WIRE 208 128 144 128
WIRE 272 128 208 128
WIRE 528 160 416 160
WIRE -256 224 -256 128
WIRE 208 384 208 128
WIRE 320 384 208 384
WIRE 528 384 528 160
WIRE 528 384 384 384
WIRE -256 416 -256 304
WIRE 48 464 48 128
WIRE 320 464 48 464
WIRE 528 464 528 384
WIRE 528 464 400 464
FLAG -64 0 0
FLAG -256 416 0
FLAG 304 304 0
FLAG 400 16 0
FLAG 528 160 OUT
SYMBOL OpAmps\\LTC2067 304 160 R0
SYMATTR InstName U1
SYMBOL res -16 112 R90
WINDOW 0 0 56 VBottom 2
WINDOW 3 32 56 VTop 2
SYMATTR InstName R1
SYMATTR Value 100k
SYMATTR SpiceLine tol=5 pwr=0.1
SYMBOL res 416 448 R90
WINDOW 0 0 56 VBottom 2
WINDOW 3 32 56 VTop 2
SYMATTR InstName R2
SYMATTR Value 10000k
SYMATTR SpiceLine tol=5 pwr=0.125
SYMBOL res 160 112 R90
WINDOW 0 0 56 VBottom 2
WINDOW 3 32 56 VTop 2
SYMATTR InstName R3
SYMATTR Value 10000k
SYMATTR SpiceLine tol=5 pwr=0.125
SYMBOL cap 0 -16 R0
SYMATTR InstName C1
SYMATTR Value 22µ
SYMBOL cap 384 368 R90
WINDOW 0 0 32 VBottom 2
WINDOW 3 32 32 VTop 2
SYMATTR InstName C2
SYMATTR Value 3.3n
SYMBOL Misc\\signal -256 208 R0
WINDOW 123 24 132 Left 2
WINDOW 39 0 0 Left 0
SYMATTR InstName V1
SYMATTR Value2 AC 1
SYMBOL Misc\\cell 304 80 R180
WINDOW 0 24 56 Left 2
WINDOW 3 24 8 Left 2
WINDOW 123 0 0 Left 0
WINDOW 39 0 0 Left 0
SYMATTR InstName V2
SYMATTR Value 2.5
SYMBOL Misc\\cell 304 240 R0
WINDOW 123 0 0 Left 0
WINDOW 39 0 0 Left 0
SYMATTR InstName V3
SYMATTR Value -2.5
TEXT -290 514 Left 2 !.ac dec 100 0.0001 500
